  rtmhist_mfilt = 1
  rtmhist_ndens = 1
  rtmhist_nhtfrq =0
